Version 4
SHEET 1 1984 784
WIRE 720 -32 672 -32
WIRE 848 -32 720 -32
WIRE -288 -16 -384 -16
WIRE -224 -16 -288 -16
WIRE -80 -16 -144 -16
WIRE -384 16 -384 -16
WIRE -288 32 -288 -16
WIRE 720 32 720 -32
WIRE -384 128 -384 96
WIRE -288 128 -288 96
WIRE 1008 128 944 128
WIRE 368 176 320 176
WIRE 400 176 368 176
WIRE 176 192 176 160
WIRE 224 192 176 192
WIRE 320 192 320 176
WIRE 1008 192 1008 128
WIRE 304 256 304 240
WIRE 368 256 368 176
WIRE 368 256 304 256
WIRE 720 256 720 96
WIRE 848 256 720 256
WIRE 960 256 848 256
WIRE 720 288 720 256
WIRE 848 288 848 256
WIRE 256 352 208 352
WIRE 368 352 336 352
WIRE 720 400 720 368
WIRE 848 400 848 352
WIRE 848 400 720 400
WIRE 1008 400 1008 256
WIRE 1008 400 848 400
WIRE 1008 416 1008 400
FLAG 176 160 Vd
FLAG 176 192 5VRAW
IOPIN 176 192 In
FLAG -384 128 0
FLAG -80 -16 5VRAW
IOPIN -80 -16 Out
FLAG -288 128 0
FLAG 672 -32 5VRPP
IOPIN 672 -32 In
FLAG 848 -32 5VLOAD
IOPIN 848 -32 Out
FLAG 1008 416 0
FLAG -384 -16 VSupply
FLAG 368 352 0
FLAG 400 176 5VRPP
IOPIN 400 176 Out
FLAG 944 128 5VRAW
IOPIN 944 128 In
FLAG 208 352 5VLOAD
IOPIN 208 352 In
SYMBOL voltage -384 0 R0
WINDOW 3 -61 -77 Left 2
WINDOW 123 0 0 Left 0
WINDOW 39 0 0 Left 0
SYMATTR Value PWL(0 0 50m 0 51m -5.5 150m -6 151m -6 200m -24 201m -24 250m 5 251m 5 300m 5.6 301m 5.6 350m 24 351m 24)
SYMATTR InstName V2
SYMBOL cap -304 32 R0
SYMATTR InstName C2
SYMATTR Value 1µF
SYMBOL Fuse\\s8006d 992 192 R0
SYMATTR InstName SCR1
SYMATTR Value TN805-600B
SYMBOL cap 832 288 R0
SYMATTR InstName C3
SYMATTR Value 100nF
SYMBOL res 704 272 R0
SYMATTR InstName R1
SYMATTR Value 3.3k
SYMBOL Fuse\\fuse2 -176 -16 R0
SYMATTR InstName U2
SYMATTR SpiceModel F4A
SYMBOL res 352 336 R90
WINDOW 0 0 56 VBottom 2
WINDOW 3 32 56 VTop 2
SYMATTR InstName LOAD
SYMATTR Value 100k
SYMBOL pmos 224 240 R270
SYMATTR InstName M2
SYMATTR Value AONR21321
SYMBOL AutoGenerated\\DI_BZT52C4V7 720 64 R270
SYMATTR InstName U1
SYMATTR Value BZT52C4V7
TEXT -448 336 Left 2 !.tran 700m
TEXT 72 272 Left 2 ;REVERSE POLARITY PROTECTION
TEXT -440 192 Left 2 ;TAILGATOR INTERCONNECT SYSTEM
TEXT -440 216 Left 2 ;PROTECTION CIRCUIT SIMULATION
TEXT -152 304 Left 2 ;11/19/2023
TEXT -440 248 Left 2 ;AUTHORS:
TEXT -208 248 Left 2 ;YOVANY MOLINA
TEXT -200 272 Left 2 ;BLAKE SANDERS
TEXT -440 304 Left 2 ;DATE:
TEXT -448 384 Left 2 !.lib "Zener_DiodesInc.lib"
TEXT -448 408 Left 2 !.lib "st_standard_sensitive_scr.lib"
TEXT -448 360 Left 2 !.lib "fuse2.lib"
TEXT -48 144 Left 2 ;SUPPLY
TEXT 560 432 Left 2 ;OVERVOLTAGE PROTECTION
TEXT 88 408 Left 2 ;TEST LOAD
TEXT -448 464 Left 2 ;NOTES:\n- REVERSE POLARITY PROTECTION USING AONR21321 HAS AN OFFSET OF 0.6V.\nCIRCUIT NEEDS 5.6V TO REACH 5V.
RECTANGLE Normal 0 176 -448 320
RECTANGLE Normal 48 -64 -448 160
RECTANGLE Normal 1184 448 544 -64
RECTANGLE Normal 528 -64 64 288
RECTANGLE Normal 400 304 80 432
