Version 4
SHEET 1 880 680
WIRE 368 -16 320 -16
WIRE 464 -16 448 -16
WIRE 320 16 320 -16
WIRE 320 16 288 16
WIRE 352 16 320 16
WIRE 352 32 352 16
WIRE 192 64 112 64
WIRE 288 64 288 16
WIRE 112 112 112 64
WIRE 272 128 272 112
WIRE 288 128 272 128
WIRE 352 128 352 112
WIRE 352 128 288 128
WIRE 256 176 176 176
WIRE 112 208 112 192
WIRE 176 208 176 176
WIRE 176 208 112 208
WIRE 256 224 256 176
WIRE 288 224 288 128
WIRE 112 320 112 208
WIRE 128 320 112 320
WIRE 272 320 272 288
WIRE 272 320 208 320
WIRE 272 336 272 320
WIRE 272 448 272 416
WIRE 272 544 272 528
FLAG 272 544 0
FLAG 464 -16 0
SYMBOL AutoGenerated\\DMP3056L 224 208 R270
SYMATTR InstName U1
SYMBOL res 336 16 R0
SYMATTR InstName R1
SYMATTR Value 10k
SYMBOL res 256 320 R0
SYMATTR InstName R2
SYMATTR Value 1k
SYMBOL res 224 304 R90
WINDOW 0 0 56 VBottom 2
WINDOW 3 32 56 VTop 2
SYMATTR InstName R3
SYMATTR Value 10k
SYMBOL res 128 208 R180
WINDOW 0 36 76 Left 2
WINDOW 3 36 40 Left 2
SYMATTR InstName R4
SYMATTR Value 110
SYMBOL voltage 272 432 R0
WINDOW 123 0 0 Left 0
WINDOW 39 0 0 Left 0
SYMATTR InstName V1
SYMATTR Value PULSE(0 3.3 100m 10n 10n 100m 200m)
SYMBOL voltage 352 -16 R270
WINDOW 0 32 56 VTop 2
WINDOW 3 -32 56 VBottom 2
WINDOW 123 0 0 Left 0
WINDOW 39 0 0 Left 0
SYMATTR InstName V2
SYMATTR Value 5
SYMBOL AutoGenerated\\F2N7002W 272 256 M270
SYMATTR InstName U2
TEXT 46 568 Left 2 !.tran 1
