Version 4
SHEET 1 880 680
WIRE 272 -96 224 -96
WIRE 368 -96 272 -96
WIRE 400 -96 368 -96
WIRE -336 -80 -432 -80
WIRE -272 -80 -336 -80
WIRE -128 -80 -192 -80
WIRE -432 -48 -432 -80
WIRE -336 -32 -336 -80
WIRE 272 -32 272 -96
WIRE -432 64 -432 32
WIRE -336 64 -336 32
WIRE 368 64 368 -96
WIRE 560 64 368 64
WIRE 736 80 736 16
WIRE 560 128 560 64
WIRE 272 192 272 32
WIRE 400 192 272 192
WIRE 512 192 400 192
WIRE 736 208 736 160
WIRE 272 224 272 192
WIRE 400 224 400 192
WIRE 272 336 272 304
WIRE 400 336 400 288
WIRE 400 336 272 336
WIRE 560 336 560 192
WIRE 560 336 400 336
WIRE 560 352 560 336
FLAG -432 64 0
FLAG -128 -80 5VRAW
IOPIN -128 -80 Out
FLAG -336 64 0
FLAG 224 -96 5VRAW
IOPIN 224 -96 In
FLAG 400 -96 5VLOAD
IOPIN 400 -96 Out
FLAG 560 352 0
FLAG 736 208 0
FLAG 736 16 5VLOAD
IOPIN 736 16 In
FLAG -432 -80 VSupply
SYMBOL voltage -432 -64 R0
WINDOW 3 -64 176 Left 2
WINDOW 123 0 0 Left 0
WINDOW 39 0 0 Left 0
SYMATTR Value PWL(0 0 100m 0 100m 5 400m 5.5 600m 6 1 0)
SYMATTR InstName V1
SYMBOL cap -352 -32 R0
SYMATTR InstName C1
SYMATTR Value 1µF
SYMBOL Fuse\\s8006d 544 128 R0
SYMATTR InstName SCR
SYMATTR Value TN805-600B
SYMBOL cap 384 224 R0
SYMATTR InstName C2
SYMATTR Value 100nF
SYMBOL res 256 208 R0
SYMATTR InstName R1
SYMATTR Value 1k
SYMBOL AutoGenerated\\DI_BZT52C4V7 272 0 R270
SYMATTR InstName U2
SYMBOL res 720 64 R0
SYMATTR InstName Load
SYMATTR Value 1k
SYMBOL Fuse\\fuse2 -224 -80 R0
SYMATTR InstName U1
SYMATTR SpiceModel F4A
TEXT -496 208 Left 2 !.tran 1
TEXT -496 160 Left 2 !.lib "SCR_Sxx06x_Sx_Sxx06x_A.lib"
TEXT -496 184 Left 2 !.lib "st_standard_sensitive_scr.lib"
TEXT -496 136 Left 2 !.lib "fuse2.lib"
TEXT -96 80 Left 2 ;SUPPLY
TEXT 480 496 Left 2 ;CROWBAR CIRCUIT + LOAD
TEXT -488 256 Left 2 ;TAILGATOR INTERCONNECT SYSTEM
TEXT -488 280 Left 2 ;OVERVOLTAGE PROTECTION
TEXT -200 368 Left 2 ;11/19/2023
TEXT -488 312 Left 2 ;AUTHORS:
TEXT -256 312 Left 2 ;YOVANY MOLINA
TEXT -248 336 Left 2 ;BLAKE SANDERS
TEXT -488 368 Left 2 ;DATE:
RECTANGLE Normal 0 -128 -496 96
RECTANGLE Normal 816 512 80 -128
RECTANGLE Normal -48 240 -496 384
